Circuit: * C:\Users\irex\Documents\LTspiceXVII\Ampeater\control_loop_ac.asc

Unknown node in .ic card: "vg1" -- ignoring
Direct Newton iteration for .op point succeeded.
.step rgs=100
.step rgs=1000
.step rgs=10000

Date: Sat May 14 19:20:08 2022
Total elapsed time: 0.230 seconds.

tnom = 27
temp = 27
method = trap
totiter = 16
traniter = 0
tranpoints = 0
accept = 0
rejected = 0
matrix size = 323
fillins = 337
solver = Normal
Matrix Compiler1:    2017 opcodes
Matrix Compiler2: 32.81 KB object code size
