Circuit: * C:\Users\irex\Documents\LTspiceXVII\Ampeater\Draft2.asc


Date: Sun Mar 13 10:10:35 2022
Total elapsed time: 0.050 seconds.

tnom = 27
temp = 27
method = trap
totiter = 0
traniter = 0
tranpoints = 0
accept = 0
rejected = 0
matrix size = 6
fillins = 0
solver = Normal

