Circuit: * C:\Users\irex\Documents\LTspiceXVII\Ampeater\Draft1.asc


Date: Thu Feb 24 16:06:15 2022
Total elapsed time: 0.030 seconds.

tnom = 27
temp = 27
method = trap
totiter = 0
traniter = 0
tranpoints = 0
accept = 0
rejected = 0
matrix size = 7
fillins = 0
solver = Normal

